AeroDyn
API
APIs
CFD
CMake
CTest
Exascale
Fortran
GPU
GPUs
Jupyter
Kokkos
Kokkos-Kernels
Kokkos-kernels
MPI
Nalu
Navier
Neumann
OpenFAST
Kynema
Raphson
SIMD
amr
amrex
anisotropic
bool
cartesian
centerline
cmake
codebase
conda
cpp
cuda
dat
datafile
dimensionalize
discretization
discretized
discretizes
doxygen
dropdown
dt
exawind
executables
fidelities
frontend
homebrew
hydrostatic
hypre
initializer
initializers
inline
iteratively
mesoscale
microscale
multibody
multigrid
multiphase
namespace
namespaces
netcdf
normals
ok
openfast
kynema
paraview
performant
piecewise
plotfile
plotfiles
plt
postprocessing
pre
priori
proj
reStructuredText
repo
roadmap
rosco
runtime
solvability
spack
spacings
spanwise
src
struct
structs
submodule
submodules
teardown
timestep
timestepping
timesteps
vectorization
vectorized
walkthrough
yaml
yaml-cpp
