.. meta::b4999a217c3458df4b85c599715d1273639c151cd764e8fa5ee5f7031ed2e6235289afbc071e59102b5e1042c93900ea51c4230654b98dc2b16c40cae88d0f71

:orphan:

.. title:: OpenTurbine API: openturbine::util::AeroDynInflowLibrary Class Reference

AeroDynInflowLibrary Class Reference
====================================

.. container:: doxygen-content

   
   .. raw:: html
     :file: classopenturbine_1_1util_1_1AeroDynInflowLibrary.html
