.. meta::cc384d850a975c6c3850492cd994e9507f6ddabbff26d2b7aa34add32e70340f195df7b5ca54f6efde224f0e1e989f20525b2fb6c4f9491a33e20829928cd751

:orphan:

.. title:: Kynema API: Member List

Member List
===========

.. container:: doxygen-content

   
   .. raw:: html
     :file: classkynema_1_1util_1_1AeroDynInflowLibrary-members.html
