.. meta::563ee1fdf6b7697abc1a86bebb6a02a34cb6b5f3a2d55676bcc78cef4e984afc4898974adcc5dbff7a016cd76069fa495c2b722ccc25e50f0e913fd41dcf2898

:orphan:

.. title:: OpenTurbine API: Member List

Member List
===========

.. container:: doxygen-content

   
   .. raw:: html
     :file: classopenturbine_1_1util_1_1AeroDynInflowLibrary-members.html
