.. meta::5884a85f394652905aa482c0cf539bb2bdd4829d11ecd47845a3796e6cde684b53ef26b0c218db07f801e8c0fd7f09b402b22b51418f501fae456743011cd8c2

:orphan:

.. title:: OpenTurbine API: openturbine::util::AeroDynInflowLibrary Class Reference

AeroDynInflowLibrary Class Reference
====================================

.. container:: doxygen-content

   
   .. raw:: html
     :file: classopenturbine_1_1util_1_1AeroDynInflowLibrary.html
