.. meta::f70ac33777afa17256368bdaf1013f3681db5cd3db9eb407f7bd424309850e71d25b2f78787220a8ce4e7fff955fa55c93924c324014ffe7a6ec3406d3838d87

:orphan:

.. title:: OpenTurbine API: Member List

Member List
===========

.. container:: doxygen-content

   
   .. raw:: html
     :file: classopenturbine_1_1util_1_1AeroDynInflowLibrary-members.html
