.. meta::54b75cabebe387e33d89050281a2399c79bb16f4326bd6aceb846e200d2aa9dc1653b183a97005a81cd2ba0de6e27f4beec15ef4c240b67ab370274f85a0c2ad

:orphan:

.. title:: Kynema API: kynema::util::AeroDynInflowLibrary Class Reference

AeroDynInflowLibrary Class Reference
====================================

.. container:: doxygen-content

   
   .. raw:: html
     :file: classkynema_1_1util_1_1AeroDynInflowLibrary.html
