.. meta::24db2df23bdbec6940f4c3a7ee8248e9915c63cd0dfa466875809b671dd01142c19a9e226d556f68baa1881c1a6597208656f4c7ed866118f0929a46a78f4de6

:orphan:

.. title:: OpenTurbine API: openturbine::util::AeroDynInflowLibrary Class Reference

AeroDynInflowLibrary Class Reference
====================================

.. container:: doxygen-content

   
   .. raw:: html
     :file: classopenturbine_1_1util_1_1AeroDynInflowLibrary.html
